/*--------------------------------*- C++ -*----------------------------------*\
| =========                 |                                                 |
| \\      /  F ield         | OpenFOAM: The Open Source CFD Toolbox           |
|  \\    /   O peration     | Version:  2.3.x                                 |
|   \\  /    A nd           | Web:      www.OpenFOAM.org                      |
|    \\/     M anipulation  |                                                 |
\*---------------------------------------------------------------------------*/
FoamFile
{
    version     2.0;
    format      ascii;
    class       dictionary;
    object      blockMeshDict;
}

// * * * * * * * * * * * * * * * * * * * * * * * * * * * * * * * * * * * * * //

convertToMeters 1;

vertices
(
    ( 5.8 -1.83 -0.039285714285714285) // 0
    ( 5.8  1.83 -0.039285714285714285) // 1
    (-1.52  1.83 -0.039285714285714285) // 2
    (-1.52 -1.83 -0.039285714285714285) // 3
    ( 5.8 -1.83  0.039285714285714285) // 4
    ( 5.8  1.83  0.039285714285714285) // 5
    (-1.52  1.83  0.039285714285714285) // 6
    (-1.52 -1.83  0.039285714285714285) // 7 
);

blocks
(
    hex (0 1 2 3 4 5 6 7)
    (70 140 1)
    simpleGrading (1 1 1)
);

patches
(
    patch inlet
    (
        (2 6 7 3) // (0 4 5 1)
    )
    patch outlet
    (
        (0 4 5 1) // (2 6 7 3)
    )
    wall walls
    (
        (1 5 6 2)
        (4 0 3 7)
    )
    empty front
    (
        (4 7 6 5)
    )
    empty back
    (
        (0 1 2 3)
    )
);

edges
(
);

mergePatchPairs
(
);

// ************************************************************************* //
