/*--------------------------------*- C++ -*----------------------------------*\
| =========                 |                                                 |
| \\      /  F ield         | OpenFOAM: The Open Source CFD Toolbox           |
|  \\    /   O peration     | Version:  2.2.x                                 |
|   \\  /    A nd           | Web:      www.OpenFOAM.org                      |
|    \\/     M anipulation  |                                                 |
\*---------------------------------------------------------------------------*/
FoamFile
{
    version     2.0;
    format      ascii;
    class       dictionary;
    object      dynamicMeshDict;
}


dynamicFvMesh   solidBodyMotionFvMesh;

motionSolverLibs ( "libfvMotionSolvers.so" );

solidBodyMotionFvMeshCoeffs
{
    cellZone        AMIsurface_z;

    solidBodyMotionFunction  rotatingMotion;
    rotatingMotionCoeffs
    {
	origin		(0 0 0);
	axis		(0 0 1);
        omega		table
	(
            (0.0 3.60626845303)
            (0.0200400801603 3.53530790259)
            (0.0400801603206 3.47810232865)
            (0.060120240481 3.43762447325)
            (0.0801603206413 3.41597780663)
            (0.100200400802 3.41428721839)
            (0.120240480962 3.43264056156)
            (0.140280561122 3.47008408723)
            (0.160320641283 3.52467200696)
            (0.180360721443 3.59356760763)
            (0.200400801603 3.67319066383)
            (0.220440881764 3.75940348774)
            (0.240480961924 3.84772594802)
            (0.260521042084 3.93356828403)
            (0.280561122244 4.01246961717)
            (0.300601202405 4.08032976465)
            (0.320641282565 4.13362230938)
            (0.340681362725 4.16957785362)
            (0.360721442886 4.18632793331)
            (0.380761523046 4.18300211465)
            (0.400801603206 4.15977322696)
            (0.420841683367 4.11784838148)
            (0.440881763527 4.05940624266)
            (0.460921843687 3.98748381181)
            (0.480961923848 3.90581860643)
            (0.501002004008 3.81865443656)
            (0.521042084168 3.73052087115)
            (0.541082164329 3.64599785474)
            (0.561122244489 3.56947770622)
            (0.581162324649 3.50493686786)
            (0.60120240481 3.4557292657)
            (0.62124248497 3.42441201957)
            (0.64128256513 3.41261255992)
            (0.661322645291 3.42094405691)
            (0.681362725451 3.44897355637)
            (0.701402805611 3.49524447871)
            (0.721442885772 3.55735231147)
            (0.741482965932 3.63206956205)
            (0.761523046092 3.7155134775)
            (0.781563126253 3.80334781542)
            (0.801603206413 3.89100818093)
            (0.821643286573 3.97393921979)
            (0.841683366733 4.04783134172)
            (0.861723446894 4.10884467236)
            (0.881763527054 4.15380859595)
            (0.901803607214 4.18038651948)
            (0.921843687375 4.18719729587)
            (0.941883767535 4.17388699665)
            (0.961923847695 4.14114730417)
            (0.981963927856 4.09067956769)
            (1.00200400802 4.02510639111)
            (1.02204408818 3.9478353469)
            (1.04208416834 3.86288189832)
            (1.0621242485 3.77466073212)
            (1.08216432866 3.68775634506)
            (1.10220440882 3.60668480625)
            (1.12224448898 3.53565907528)
            (1.14228456914 3.47837007178)
            (1.1623246493 3.43779487329)
            (1.18236472946 3.41604200858)
            (1.20240480962 3.41424188594)
            (1.22244488978 3.43248805046)
            (1.24248496994 3.46983232285)
            (1.2625250501 3.52433407249)
            (1.28256513026 3.59316106414)
            (1.30260521042 3.67273663774)
            (1.32264529058 3.75892557296)
            (1.34268537074 3.84724897984)
            (1.3627254509 3.93311704855)
            (1.38276553106 4.01206756328)
            (1.40280561122 4.07999778546)
            (1.42284569138 4.1333776565)
            (1.44288577154 4.16943324067)
            (1.4629258517 4.18629087525)
            (1.48296593186 4.18307453722)
            (1.50300601202 4.15995136667)
            (1.52304609218 4.11812298112)
            (1.54308617234 4.0597630324)
            (1.56312625251 3.98790425073)
            (1.58316633267 3.90628084602)
            (1.60320641283 3.8191344561)
            (1.62324649299 3.73099372598)
            (1.64328657315 3.6464389725)
            (1.66332665331 3.56986416381)
            (1.68336673347 3.50524858264)
            (1.70340681363 3.45595003912)
            (1.72344689379 3.42453037892)
            (1.74348697395 3.41262235456)
            (1.76352705411 3.42084477784)
            (1.78356713427 3.44877036272)
            (1.80360721443 3.49494792964)
            (1.82364729459 3.55697781742)
            (1.84368737475 3.63163658398)
            (1.86372745491 3.71504451551)
            (1.88376753507 3.80286723958)
            (1.90380761523 3.89054096481)
            (1.92384769539 3.97350964272)
            (1.94388777555 4.04746172709)
            (1.96392785571 4.10855422753)
            (1.98396793587 4.15361241418)
            (2.00400801603 4.18029479553)
            (2.02404809619 4.18721479626)
            (2.04408817635 4.17401281196)
            (2.06412825651 4.1413748963)
            (2.08416833667 4.09099710959)
            (2.10420841683 4.02549738141)
            (2.12424849699 3.94827946741)
            (2.14428857715 3.86335606991)
            (2.16432865731 3.77514031401)
            (2.18436873747 3.68821641532)
            (2.20440881764 3.60710145689)
            (2.2244488978 3.53601065465)
            (2.24448897796 3.47863830973)
            (2.26452905812 3.43796583058)
            (2.28456913828 3.41610680125)
            (2.30460921844 3.41419714697)
            (2.3246492986 3.43233610476)
            (2.34468937876 3.46958106642)
            (2.36472945892 3.52399656211)
            (2.38476953908 3.59275483886)
            (2.40480961924 3.67228280745)
            (2.4248496994 3.75844772138)
            (2.44488977956 3.84677193897)
            (2.46492985972 3.93266560828)
            (2.48496993988 4.01166518313)
            (2.50501002004 4.07966537549)
            (2.5250501002 4.13313249073)
            (2.54509018036 4.16928805936)
            (2.56513026052 4.18625322288)
            (2.58517034068 4.18314637045)
            (2.60521042084 4.16012895259)
            (2.625250501 4.11839709133)
            (2.64529058116 4.06011942249)
            (2.66533066132 3.98832440056)
            (2.68537074148 3.9067429221)
            (2.70541082164 3.81961444621)
            (2.7254509018 3.73146668698)
            (2.74549098196 3.64688032651)
            (2.76553106212 3.57025097545)
            (2.78557114228 3.50556075089)
            (2.80561122244 3.45617134185)
            (2.82565130261 3.42464931593)
            (2.84569138277 3.41263274516)
            (2.86573146293 3.42074608209)
            (2.88577154309 3.44856770943)
            (2.90581162325 3.49465184988)
            (2.92585170341 3.55660369726)
            (2.94589178357 3.63120386492)
            (2.96593186373 3.71457568423)
            (2.98597194389 3.80238665932)
            (3.00601202405 3.89007360939)
            (3.02605210421 3.97307979871)
            (3.04609218437 4.04709173173)
            (3.06613226453 4.10826330799)
            (3.08617234469 4.15341568838)
            (3.10621242485 4.1802024865)
            (3.12625250501 4.18723170093)
            (3.14629258517 4.17413805187)
            (3.16633266533 4.14160196323)
            (3.18637274549 4.09131420379)
            (3.20641282565 4.02588802478)
            (3.22645290581 3.9487233598)
            (3.24649298597 3.86383014403)
            (3.26653306613 3.77561993414)
            (3.28657314629 3.68867665755)
            (3.30661322645 3.60751840429)
            (3.32665330661 3.53636264016)
            (3.34669338677 3.47890704208)
            (3.36673346693 3.43813734484)
            (3.38677354709 3.41617218452)
            (3.40681362725 3.41415300155)
            (3.42685370741 3.43218472471)
            (3.44689378758 3.46933031834)
            (3.46693386774 3.52365947637)
            (3.4869739479 3.59234893243)
            (3.50701402806 3.67182917365)
            (3.52705410822 3.75796993372)
            (3.54709418838 3.84629482614)
            (3.56713426854 3.93221396391)
            (3.5871743487 4.01126247734)
            (3.60721442886 4.07933253527)
            (3.62725450902 4.13288681244)
            (3.64729458918 4.16914230991)
            (3.66733466934 4.18621497627)
            (3.6873747495 4.1832176142)
            (3.70741482966 4.16030598447)
            (3.72745490982 4.11867071169)
            (3.74749498998 4.0604754124)
            (3.76753507014 3.98874426066)
            (3.7875751503 3.90720483396)
            (3.80761523046 3.82009440614)
            (3.82765531062 3.73193975341)
            (3.84769539078 3.64732191609)
            (3.86773547094 3.57063814057)
            (3.8877755511 3.50587337213)
            (3.90781563126 3.45639317355)
            (3.92785571142 3.4247688304)
            (3.94789579158 3.41264373172)
            (3.96793587174 3.42064796981)
            (3.9879759519 3.44836559681)
            (4.00801603206 3.49435623989)
            (4.02805611222 3.55622995156)
            (4.04809619238 3.63077140556)
            (4.06813627255 3.71410698436)
            (4.08817635271 3.80190607539)
            (4.10821643287 3.88960611539)
            (4.12825651303 3.97264968841)
            (4.14829659319 4.04672135623)
            (4.16833667335 4.10797191421)
            (4.18837675351 4.15321841885)
            (4.20841683367 4.18010959254)
            (4.22845691383 4.18724800986)
            (4.24849699399 4.17426271617)
            (4.26853707415 4.14182850461)
            (4.28857715431 4.09163084981)
            (4.30861723447 4.02627832063)
            (4.32865731463 3.94916702338)
            (4.34869739479 3.86430411995)
            (4.36873747495 3.77609959178)
            (4.38877755511 3.68913707105)
            (4.40881763527 3.60793564783)
            (4.42885771543 3.53671503127)
            (4.44889779559 3.47917626843)
            (4.46893787575 3.43830941583)
            (4.48897795591 3.41623815831)
            (4.50901803607 3.41410944975)
            (4.52905811623 3.43203391053)
            (4.54909819639 3.46908007899)
            (4.56913827655 3.52332281576)
            (4.58917835671 3.59194334547)
            (4.60921843687 3.67137573704)
            (4.62925851703 3.75749221072)
            (4.64929859719 3.84581764209)
            (4.66933867735 3.93176211613)
            (4.68937875752 4.01085944652)
            (4.70941883768 4.07899926531)
            (4.72945891784 4.13264062201)
            (4.749498998 4.16899599254)
            (4.76953907816 4.18617613548)
            (4.78957915832 4.18328826839)
            (4.80961923848 4.16048246202)
            (4.82965931864 4.11894384178)
            (4.8496993988 4.06083100157)
            (4.86973947896 3.98916383038)
            (4.88977955912 3.90766658089)
            (4.90981963928 3.82057433516)
            (4.92985971944 3.73241292455)
            (4.9498997996 3.64776374057)
            (4.96993987976 3.57102565855)
            (4.98997995992 3.50618644588)
            (5.01002004008 3.45661553389)
            (5.03006012024 3.42488892216)
            (5.0501002004 3.41265531422)
            (5.07014028056 3.42055044116)
            (5.09018036072 3.44816402517)
            (5.11022044088 3.49406110013)
            (5.13026052104 3.5558565809)
            (5.1503006012 3.63033920655)
            (5.17034068136 3.71363841664)
            (5.19038076152 3.80142548852)
            (5.21042084168 3.88913848354)
            (5.23046092184 3.9722193125)
            (5.250501002 4.04635060116)
            (5.27054108216 4.10768004661)
            (5.29058116232 4.15302060591)
            (5.31062124248 4.18001611379)
            (5.33066132265 4.18726372301)
            (5.35070140281 4.17438680468)
            (5.37074148297 4.14205452009)
            (5.39078156313 4.09194704716)
            (5.41082164329 4.02666826835)
            (5.43086172345 3.94961045748)
            (5.45090180361 3.86477799693)
            (5.47094188377 3.77657928619)
            (5.49098196393 3.68959765511)
            (5.51102204409 3.60835318685)
            (5.53106212425 3.53706782744)
            (5.55110220441 3.47944598836)
            (5.57114228457 3.43848204326)
            (5.59118236473 3.4163047225)
            (5.61122244489 3.41406649164)
            (5.63126252505 3.43188366246)
            (5.65130260521 3.46883034874)
            (5.67134268537 3.52298658082)
            (5.69138276553 3.5915380786)
            (5.71142284569 3.67092249831)
            (5.73146292585 3.75701455312)
            (5.75150300601 3.84534038755)
            (5.77154308617 3.93131006563)
            (5.79158316633 4.01045609131)
            (5.81162324649 4.07866556611)
            (5.83166332665 4.13239391982)
            (5.85170340681 4.16884910747)
            (5.87174348697 4.18613670057)
            (5.89178356713 4.1833583329)
            (5.91182364729 4.16065838498)
            (5.93186372745 4.11921648119)
            (5.95190380762 4.06118618946)
            (5.97194388778 3.98958310907)
            (5.99198396794 3.90812816218)
            (6.0120240481 3.82105423253)
            (6.03206412826 3.73288619967)
            (6.05210420842 3.64820579925)
            (6.07214428858 3.5714135288)
            (6.09218436874 3.50649997165)
            (6.1122244489 3.45683842251)
            (6.13226452906 3.42500959102)
            (6.15230460922 3.41266749265)
            (6.17234468938 3.42045349628)
            (6.19238476954 3.44796299483)
            (6.2124248497 3.49376643105)
            (6.23246492986 3.55548358584)
            (6.25250501002 3.62990726856)
            (6.27254509018 3.71316998179)
            (6.29258517034 3.80094489947)
            (6.3126252505 3.88867071455)
            (6.33266533066 3.97178867164)
            (6.35270541082 4.04597946708)
            (6.37274549098 4.10738770565)
            (6.39278557114 4.15282224985)
            (6.4128256513 4.17992205039)
            (6.43286573146 4.18727884037)
            (6.45290581162 4.1745103172)
            (6.47294589178 4.14228000933)
            (6.49298597194 4.09226279536)
            (6.5130260521 4.02705786735)
            (6.53306613226 3.9500536614)
            (6.55310621242 3.86525177426)
            (6.57314629259 3.77705901664)
            (6.59318637275 3.69005840903)
            (6.61322645291 3.60877102072)
            (6.63326653307 3.53742102813)
            (6.65330661323 3.47971620146)
            (6.67334669339 3.43865522689)
            (6.69338677355 3.416371877)
            (6.71342685371 3.41402412727)
            (6.73346693387 3.43173398072)
            (6.75350701403 3.468581128)
            (6.77354709419 3.52265077206)
            (6.79358717435 3.59113313244)
            (6.81362725451 3.67046945817)
            (6.83366733467 3.75653696166)
            (6.85370741483 3.84486306325)
            (6.87374749499 3.93085781312)
            (6.89378757515 4.01005241231)
            (6.91382765531 4.07833143819)
            (6.93386773547 4.13214670626)
            (6.95390781563 4.16870165495)
            (6.97394789579 4.18609667159)
            (6.99398797595 4.18342780762)
            (7.01402805611 4.16083375308)
            (7.03406813627 4.11948862949)
            (7.05410821643 4.06154097552)
            (7.07414829659 3.9900020961)
            (7.09418837675 3.90858957711)
            (7.11422845691 3.8215340975)
            (7.13426853707 3.73335957804)
            (7.15430861723 3.64864809147)
            (7.17434869739 3.57180175072)
            (7.19438877756 3.50681394896)
            (7.21442885772 3.45706183908)
            (7.23446893788 3.42513083679)
            (7.25450901804 3.41268026697)
            (7.2745490982 3.42035713532)
            (7.29458917836 3.44776250608)
            (7.31462925852 3.4934722331)
            (7.33466933868 3.55511096696)
            (7.35470941884 3.62947559225)
            (7.374749499 3.71270168052)
            (7.39478957916 3.80046430896)
            (7.41482965932 3.88820280914)
            (7.43486973948 3.97135776648)
            (7.45490981964 4.04560795457)
            (7.4749498998 4.10709489179)
            (7.49498997996 4.15262335099)
            (7.51503006012 4.17982740249)
            (7.53507014028 4.1872933619)
            (7.55511022044 4.17463325355)
            (7.5751503006 4.14250497199)
            (7.59519038076 4.09257809392)
            (7.61523046092 4.02744711703)
            (7.63527054108 3.95049663446)
            (7.65531062124 3.8657254512)
            (7.6753507014 3.77753878237)
            (7.69539078156 3.69051933208)
            (7.71543086172 3.60918914878)
            (7.73547094188 3.53777463278)
            (7.75551102204 3.4799869073)
            (7.7755511022 3.43882896643)
            (7.79559118236 3.41643962171)
            (7.81563126253 3.41398235671)
            (7.83567134269 3.43158486556)
            (7.85571142285 3.46833241714)
            (7.87575150301 3.52231538999)
            (7.89579158317 3.59072850761)
            (7.91583166333 3.6700166173)
            (7.93587174349 3.75605943705)
            (7.95591182365 3.84438566994)
            (7.97595190381 3.93040535928)
            (7.99599198397 4.00964841015)
            (8.01603206413 4.07799688206)
            (8.03607214429 4.13189898169)
            (8.05611222445 4.16855363518)
            (8.07615230461 4.18605604861)
            (8.09619238477 4.18349669244)
            (8.11623246493 4.16100856603)
            (8.13627254509 4.11976028627)
            (8.15631262525 4.06189535921)
            (8.17635270541 3.99042079081)
            (8.19639278557 3.90905082498)
            (8.21643286573 3.82201392934)
            (8.23647294589 3.73383305894)
            (8.25651302605 3.64909061654)
            (8.27655310621 3.57219032373)
            (8.29659318637 3.50712837733)
            (8.31663326653 3.45728578326)
            (8.33667334669 3.42525265929)
            (8.35671342685 3.41269363718)
            (8.37675350701 3.42026135844)
            (8.39679358717 3.44756255925)
            (8.41683366733 3.49317850674)
            (8.43687374749 3.55473872485)
            (8.45691382766 3.6290441783)
            (8.47695390782 3.71223351356)
            (8.49699398798 3.79998371773)
            (8.51703406814 3.88773476803)
            (8.5370741483 3.97092659769)
            (8.55711422846 4.0452360642)
            (8.57715430862 4.10680160547)
            (8.59719438878 4.15242390962)
            (8.61723446894 4.17973217024)
            (8.6372745491 4.1873072876)
            (8.65731462926 4.17475561353)
            (8.67735470942 4.1427294077)
            (8.69739478958 4.09289294235)
            (8.71743486974 4.02783601679)
            (8.7374749499 3.95093937599)
            (8.75751503006 3.86619902702)
            (8.77755511022 3.77801858267)
            (8.79759519038 3.69098042357)
            (8.81763527054 3.60960757041)
            (8.8376753507 3.53812864087)
            (8.85771543086 3.48025810548)
            (8.87775551102 3.43900326163)
            (8.89779559118 3.41650795651)
            (8.91783567134 3.41394118004)
            (8.9378757515 3.43143631719)
            (8.95791583166 3.46808421654)
            (8.97795591182 3.52198043513)
            (8.99799599198 3.59032420475)
            (9.01803607214 3.66956397641)
            (9.0380761523 3.75558198006)
            (9.05811623246 3.84390820834)
            (9.07815631263 3.92995270482)
            (9.09819639279 4.00924408545)
            (9.11823647295 4.07766189824)
            (9.13827655311 4.1316507465)
            (9.15831663327 4.1684050484)
            (9.17835671343 4.1860148317)
            (9.19839679359 4.18356498726)
            (9.21843687375 4.16118282359)
            (9.23847695391 4.1200314511)
            (9.25851703407 4.06224933997)
            (9.27855711423 3.99083919257)
            (9.29859719439 3.90951190508)
            (9.31863727455 3.82249372732)
            (9.33867735471 3.73430664164)
            (9.35871743487 3.64953337378)
            (9.37875751503 3.57257924721)
            (9.39879759519 3.50744325628)
            (9.41883767535 3.45751025469)
            (9.43887775551 3.42537505833)
            (9.45891783567 3.41270760325)
            (9.47895791583 3.42016616578)
            (9.49899799599 3.44736315463)
            (9.51903807615 3.49288525242)
            (9.53907815631 3.55436686006)
            (9.55911823647 3.62861302735)
            (9.57915831663 3.71176548162)
            (9.59919839679 3.79950312653)
            (9.61923847695 3.88726659194)
            (9.63927855711 3.97049516594)
            (9.65931863727 4.04486379653)
            (9.67935871743 4.10650784714)
            (9.6993987976 4.15222392605)
            (9.71943887776 4.17963635377)
            (9.73947895792 4.18732061743)
            (9.75951903808 4.17487739696)
            (9.77955911824 4.14295331614)
            (9.7995991984 4.09320734018)
            (9.81963927856 4.02822456602)
            (9.83967935872 3.95138188531)
            (9.85971943888 3.86667250099)
            (9.87975951904 3.77849841678)
            (9.8997995992 3.69144168278)
            (9.91983967936 3.61002628495)
            (9.93987975952 3.53848305183)
            (9.95991983968 3.48052979557)
            (9.97995991984 3.43917811222)
            (10.0 3.41657688131)
            );
        }
    }