/*--------------------------------*- C++ -*----------------------------------*| =========                 |                                                 |
| \      /  F ield         | OpenFOAM: The Open Source CFD Toolbox           |
|  \    /   O peration     | Version:  2.2.2                                 |
|   \  /    A nd           | Web:      www.OpenFOAM.org                      |
|    \/     M anipulation  |                                                 |
\*---------------------------------------------------------------------------*/
FoamFile
{
    version     2.0;
    format      ascii;
    class       dictionary;
    object      dynamicMeshDict;
}


dynamicFvMesh   solidBodyMotionFvMesh;

motionSolverLibs ( "libfvMotionSolvers.so" );

solidBodyMotionFvMeshCoeffs
{
    cellZone        AMIsurface_z;

    solidBodyMotionFunction  rotatingMotion;
    rotatingMotionCoeffs
    {
	origin		(0 0 0);
	axis		(0 0 1);
        omega		table
	(
            (0.0  3.60626845303)
            (0.0250626566416  3.51954903595)
            (0.0501253132832  3.4555682571)
            (0.0751879699248  3.41951360365)
            (0.100250626566  3.41430834501)
            (0.125313283208  3.44037451749)
            (0.15037593985  3.49559870613)
            (0.175438596491  3.5755033979)
            (0.200501253133  3.67361001324)
            (0.225563909774  3.78196418183)
            (0.250626566416  3.89178067358)
            (0.275689223058  3.99415569499)
            (0.300751879699  4.08078879831)
            (0.325814536341  4.1446558722)
            (0.350877192982  4.18057864853)
            (0.375939849624  4.18564455036)
            (0.401002506266  4.15944284026)
            (0.426065162907  4.10409792242)
            (0.451127819549  4.02409709845)
            (0.47619047619  3.9259267422)
            (0.501253132832  3.81754639204)
            (0.526315789474  3.70774340081)
            (0.551378446115  3.60542046742)
            (0.576441102757  3.51887381639)
            (0.601503759398  3.45512054959)
            (0.62656641604  3.4193297078)
            (0.651629072682  3.41440317088)
            (0.676691729323  3.44074037672)
            (0.701754385965  3.49620593527)
            (0.726817042607  3.57630276351)
            (0.751879699248  3.6745367037)
            (0.77694235589  3.78294306214)
            (0.802005012531  3.89273237728)
            (0.827067669173  3.99500305904)
            (0.852130325815  4.08146311941)
            (0.877192982456  4.14510247718)
            (0.902255639098  4.18076132719)
            (0.927318295739  4.18554849132)
            (0.952380952381  4.15907583187)
            (0.977443609023  4.1034897213)
            (1.00250626566  4.02329701684)
            (1.02756892231  3.92499964979)
            (1.05263157895  3.8165674564)
            (1.07769423559  3.70679199291)
            (1.10275689223  3.6045737263)
            (1.12781954887  3.51820039483)
            (1.15288220551  3.45467504784)
            (1.17794486216  3.41914824662)
            (1.2030075188  3.41450046293)
            (1.22807017544  3.44110853367)
            (1.25313283208  3.49681510739)
            (1.27819548872  3.57710355984)
            (1.30325814536  3.67546419659)
            (1.32832080201  3.78392205155)
            (1.35338345865  3.89368348788)
            (1.37844611529  3.99584917589)
            (1.40350877193  4.08213564035)
            (1.42857142857  4.14554687499)
            (1.45363408521  4.18094157061)
            (1.47869674185  4.18544996642)
            (1.5037593985  4.15870652694)
            (1.52882205514  4.10287957914)
            (1.55388471178  4.02249550709)
            (1.57894736842  3.92407175791)
            (1.60401002506  3.8155884148)
            (1.6290726817  3.70584118113)
            (1.65413533835  3.60372823506)
            (1.67919799499  3.51752877559)
            (1.70426065163  3.45423175469)
            (1.72932330827  3.41896922126)
            (1.75438596491  3.41460022053)
            (1.77944862155  3.441478986)
            (1.8045112782  3.4974262186)
            (1.82957393484  3.57790578174)
            (1.85463659148  3.67639248598)
            (1.87969924812  3.78490114379)
            (1.90476190476  3.89463399931)
            (1.9298245614  3.99669404015)
            (1.95488721805  4.08280635683)
            (1.97994987469  4.14598906277)
            (2.00501253133  4.18111937762)
            (2.03007518797  4.18534897628)
            (2.05513784461  4.15833492781)
            (2.08020050125  4.10226749985)
            (2.10526315789  4.02169257431)
            (2.13032581454  3.9231430725)
            (2.15538847118  3.81460927349)
            (2.18045112782  3.70489097157)
            (2.20551378446  3.60288399913)
            (2.2305764411  3.51685896295)
            (2.25563909774  3.45379067298)
            (2.28070175439  3.41879263288)
            (2.30576441103  3.41470244305)
            (2.33082706767  3.44185173133)
            (2.35588972431  3.498039265)
            (2.38095238095  3.57870942411)
            (2.40601503759  3.67732156592)
            (2.43107769424  3.78588033259)
            (2.45614035088  3.89558390548)
            (2.48120300752  3.99753764641)
            (2.50626566416  4.08347526455)
            (2.5313283208  4.1464290377)
            (2.55639097744  4.1812947471)
            (2.58145363409  4.18524552156)
            (2.60651629073  4.15796103687)
            (2.63157894737  4.10165348734)
            (2.65664160401  4.02088822365)
            (2.68170426065  3.9222135995)
            (2.70676691729  3.81363003875)
            (2.73182957393  3.7039413703)
            (2.75689223058  3.6020410239)
            (2.78195488722  3.51619096121)
            (2.80701754386  3.45335180554)
            (2.8320802005  3.41861848259)
            (2.85714285714  3.41480712982)
            (2.88220551378  3.44222676728)
            (2.90726817043  3.49865424265)
            (2.93233082707  3.57951448178)
            (2.95739348371  3.67825143048)
            (2.98245614035  3.7868596117)
            (3.00751879699  3.89653320033)
            (3.03258145363  3.99837998927)
            (3.05764411028  4.08414235924)
            (3.08270676692  4.14686679696)
            (3.10776942356  4.18146767792)
            (3.1328320802  4.18513960291)
            (3.15789473684  4.15758485651)
            (3.18295739348  4.10103754554)
            (3.20802005013  4.02008246024)
            (3.23308270677  3.92128334486)
            (3.25814536341  3.81265071684)
            (3.28320802005  3.70299238339)
            (3.30827067669  3.60119931476)
            (3.33333333333  3.51552477463)
            (3.35839598997  3.45291515516)
            (3.38345864662  3.41844677151)
            (3.40852130326  3.41491428018)
            (3.4335839599  3.44260409146)
            (3.45864661654  3.49927114762)
            (3.48370927318  3.58032094963)
            (3.50877192982  3.67918207372)
            (3.53383458647  3.78783897485)
            (3.55889724311  3.89748187778)
            (3.58395989975  3.99922106334)
            (3.60902255639  4.08480763664)
            (3.63408521303  4.14730233776)
            (3.65914786967  4.18163816898)
            (3.68421052632  4.18503122101)
            (3.70927318296  4.15720638913)
            (3.7343358396  4.10041967837)
            (3.75939849624  4.01927528925)
            (3.78446115288  3.92035231452)
            (3.80952380952  3.81167131401)
            (3.83458646617  3.70204401692)
            (3.85964912281  3.60035887709)
            (3.88471177945  3.51486040748)
            (3.90977443609  3.45248072464)
            (3.93483709273  3.41827750075)
            (3.95989974937  3.41502389344)
            (3.98496240602  3.44298370143)
            (4.01002506266  3.49988997598)
            (4.0350877193  3.58112882248)
            (4.06015037594  3.68011348967)
            (4.08521303258  3.78881841579)
            (4.11027568922  3.89842993176)
            (4.13533834586  4.00006086326)
            (4.16040100251  4.08547109248)
            (4.18546365915  4.1477356573)
            (4.21052631579  4.18180621918)
            (4.23558897243  4.18492037655)
            (4.26065162907  4.15682563716)
            (4.28571428571  4.09979988981)
            (4.31077694236  4.01846671584)
            (4.335839599  3.91942051445)
            (4.36090225564  3.81069183654)
            (4.38596491228  3.70109627695)
            (4.41102756892  3.59951971628)
            (4.43609022556  3.51419786401)
            (4.46115288221  3.45204851676)
            (4.48621553885  3.41811067137)
            (4.51127819549  3.41513596891)
            (4.53634085213  3.44336559479)
            (4.56140350877  3.50051072376)
            (4.58646616541  3.58193809517)
            (4.61152882206  3.68104567238)
            (4.6365914787  3.78979792823)
            (4.66165413534  3.8993773562)
            (4.68671679198  4.00089938363)
            (4.71177944862  4.08613272252)
            (4.73684210526  4.14816675283)
            (4.7619047619  4.18197182746)
            (4.78696741855  4.18480707025)
            (4.81203007519  4.15644260302)
            (4.83709273183  4.09917818381)
            (4.86215538847  4.01765674516)
            (4.88721804511  3.91848795059)
            (4.91228070175  3.80971229068)
            (4.9373433584  3.70014916954)
            (4.96240601504  3.59868183768)
            (4.98746867168  3.51353714845)
            (5.01253132832  3.45161853428)
            (5.03759398496  3.41794628446)
            (5.0626566416  3.41525050587)
            (5.08771929825  3.44374976909)
            (5.11278195489  3.50113338699)
            (5.13784461153  3.58274876252)
            (5.16290726817  3.6819786159)
            (5.18796992481  3.79077750593)
            (5.21303258145  3.90032414506)
            (5.2380952381  4.00173661911)
            (5.26315789474  4.08679252254)
            (5.28822055138  4.14859562157)
            (5.31328320802  4.18213499274)
            (5.33834586466  4.18469130283)
            (5.3634085213  4.15605728918)
            (5.38847117794  4.09855456435)
            (5.41353383459  4.01684538242)
            (5.43859649123  3.91755462891)
            (5.46365914787  3.80873268271)
            (5.48872180451  3.69920270075)
            (5.51378446115  3.59784524666)
            (5.53884711779  3.51287826503)
            (5.56390977444  3.45119077996)
            (5.58897243108  3.41778434106)
            (5.61403508772  3.41536750357)
            (5.63909774436  3.44413622186)
            (5.664160401  3.50175796169)
            (5.68922305764  3.58356081936)
            (5.71428571429  3.68291231424)
            (5.73934837093  3.79175714261)
            (5.76441102757  3.90127029227)
            (5.78947368421  4.00257256433)
            (5.81453634085  4.08745048832)
            (5.83959899749  4.14902226079)
            (5.86466165414  4.18229571399)
            (5.88972431078  4.18457307502)
            (5.91478696742  4.15566969809)
            (5.93984962406  4.09792903541)
            (5.9649122807  4.01603263279)
            (5.98997493734  3.91662055539)
            (6.01503759398  3.80775301889)
            (6.04010025063  3.69825687663)
            (6.06516290727  3.59700994857)
            (6.09022556391  3.51222121796)
            (6.11528822055  3.45076525653)
            (6.14035087719  3.41762484221)
            (6.16541353383  3.41548696128)
            (6.19047619048  3.44452495065)
            (6.21553884712  3.50238444387)
            (6.24060150376  3.58437426048)
            (6.2656641604  3.68384676145)
            (6.29072681704  3.79273683201)
            (6.31578947368  3.90221579178)
            (6.34085213033  4.00340721396)
            (6.36591478697  4.08810661563)
            (6.39097744361  4.14944666775)
            (6.41604010025  4.18245399019)
            (6.44110275689  4.1844523876)
            (6.46616541353  4.15527983224)
            (6.49122807018  4.09730160099)
            (6.51629072682  4.01521850148)
            (6.54135338346  3.91568573599)
            (6.5664160401  3.80677330548)
            (6.59147869674  3.69731170324)
            (6.61654135338  3.59617594875)
            (6.64160401003  3.51156601144)
            (6.66666666667  3.45034196671)
            (6.69172932331  3.41746778893)
            (6.71679197995  3.41560887824)
            (6.74185463659  3.44491595295)
            (6.76691729323  3.50301282951)
            (6.79197994987  3.58518908069)
            (6.81704260652  3.68478195155)
            (6.84210526316  3.79371656786)
            (6.8671679198  3.90316063755)
            (6.89223057644  4.00424056265)
            (6.91729323308  4.0887609003)
            (6.94235588972  4.14986883975)
            (6.96741854637  4.18260982031)
            (6.99248120301  4.18432924131)
            (7.01754385965  4.15488769411)
            (7.04260651629  4.09667226512)
            (7.06766917293  4.01440299368)
            (7.09273182957  3.9147501767)
            (7.11779448622  3.80579354875)
            (7.14285714286  3.69636718661)
            (7.1679197995  3.59534325253)
            (7.19298245614  3.51091264967)
            (7.21804511278  3.4499209132)
            (7.24310776942  3.41731318222)
            (7.26817042607  3.41573325365)
            (7.29323308271  3.44530922628)
            (7.31829573935  3.5036431146)
            (7.34335839599  3.58600527477)
            (7.36842105263  3.68571787854)
            (7.39348370927  3.7946963439)
            (7.41854636591  3.90410482353)
            (7.44360902256  4.00507260507)
            (7.4686716792  4.08941333812)
            (7.49373433584  4.15028877409)
            (7.51879699248  4.18276320336)
            (7.54385964912  4.18420363696)
            (7.56892230576  4.15449328621)
            (7.59398496241  4.09604103181)
            (7.61904761905  4.01358611462)
            (7.64411027569  3.91381388349)
            (7.66917293233  3.80481375497)
            (7.69423558897  3.69542333278)
            (7.71929824561  3.59451186523)
            (7.74436090226  3.51026113683)
            (7.7694235589  3.44950209871)
            (7.79448621554  3.41716102307)
            (7.81954887218  3.41586008673)
            (7.84461152882  3.44570476811)
            (7.86967418546  3.50427529512)
            (7.89473684211  3.5868228375)
            (7.91979949875  3.68665453645)
            (7.94486215539  3.79567615386)
            (7.96992481203  3.90504834369)
            (7.99498746867  4.0059033359)
            (8.02005012531  4.09006392494)
            (8.04511278195  4.15070646807)
            (8.0701754386  4.18291413836)
            (8.09523809524  4.18407557535)
            (8.12030075188  4.15409661107)
            (8.14536340852  4.09540790511)
            (8.17042606516  4.01276786953)
            (8.1954887218  3.91287686237)
            (8.22055137845  3.8038339304)
            (8.24561403509  3.6944801478)
            (8.27067669173  3.59368179219)
            (8.29573934837  3.50961147708)
            (8.32080200501  3.44908552591)
            (8.34586466165  3.41701131245)
            (8.3709273183  3.41598937667)
            (8.39598997494  3.44610257592)
            (8.42105263158  3.504909367)
            (8.44611528822  3.58764176365)
            (8.47117794486  3.68759191929)
            (8.4962406015  3.79665599148)
            (8.52130325815  3.90599119198)
            (8.54636591479  4.00673274983)
            (8.57142857143  4.09071265659)
            (8.59649122807  4.15112191903)
            (8.62155388471  4.18306262435)
            (8.64661654135  4.1839450573)
            (8.67167919799  4.15369767123)
            (8.69674185464  4.09477288905)
            (8.72180451128  4.01194826362)
            (8.74686716792  3.91193911931)
            (8.77192982456  3.8028540813)
            (8.7969924812  3.6935376377)
            (8.82205513784  3.5928530387)
            (8.84711779449  3.50896367457)
            (8.87218045113  3.44867119746)
            (8.89724310777  3.41686405133)
            (8.92230576441  3.41612112263)
            (8.94736842105  3.44650264716)
            (8.97243107769  3.50554532621)
            (8.99749373434  3.58846204799)
            (9.02255639098  3.68853002107)
            (9.04761904762  3.79763585048)
            (9.07268170426  3.90693336239)
            (9.0977443609  4.00756084156)
            (9.12280701754  4.09135952892)
            (9.14786967419  4.15153512431)
            (9.17293233083  4.18320866038)
            (9.19799498747  4.18381208364)
            (9.22305764411  4.15329646923)
            (9.24812030075  4.09413598771)
            (9.27318295739  4.01112730216)
            (9.29824561404  3.91100066032)
            (9.32330827068  3.80187421396)
            (9.34837092732  3.6925958085)
            (9.37343358396  3.59202561007)
            (9.3984962406  3.50831773345)
            (9.42355889724  3.44825911601)
            (9.44862155388  3.41671924064)
            (9.47368421053  3.41625532378)
            (9.49874686717  3.44690497927)
            (9.52380952381  3.50618316867)
            (9.54887218045  3.58928368527)
            (9.57393483709  3.68946883577)
            (9.59899749373  3.7986157246)
            (9.62406015038  3.90787484888)
            (9.64912280702  4.00838760578)
            (9.67418546366  4.09200453779)
            (9.6992481203  4.15194608126)
            (9.72431077694  4.1833522455)
            (9.74937343358  4.18367665522)
            (9.77443609023  4.15289300764)
            (9.79949874687  4.09349720515)
            (9.82456140351  4.01030499038)
            (9.84962406015  3.91006149141)
            (9.87468671679  3.80089433462)
            (9.89974937343  3.69165466623)
            (9.92481203008  3.59119951158)
            (9.94987468672  3.50767365786)
            (9.97493734336  3.4478492842)
            (10.0  3.41657688131)
        );
    }
}