/*--------------------------------*- C++ -*----------------------------------*\
| =========                 |                                                 |
| \\      /  F ield         | OpenFOAM: The Open Source CFD Toolbox           |
|  \\    /   O peration     | Version:  2.2.0                                 |
|   \\  /    A nd           | Web:      www.OpenFOAM.org                      |
|    \\/     M anipulation  |                                                 |
\*---------------------------------------------------------------------------*/
FoamFile
{
    version     2.0;
    format      ascii;
    class       volVectorField;
    location    "0";
    object      U;
}
// * * * * * * * * * * * * * * * * * * * * * * * * * * * * * * * * * * * * * //

#include        "include/initialConditions"

dimensions      [0 1 -1 0 0 0 0];

internalField   uniform $flowVelocity;

boundaryField
{

    inlet
    {
        type		oscillatingFixedValue;
	value		$internalField;
        amplitude       constant 0.1;
        frequency       constant 1.0;
        refValue        $internalField;
    }

    outlet
    {
        type            inletOutlet;
        inletValue      uniform (0 0 0);
        value           $internalField;
    }

    "blades.*"
    {
        type            movingWallVelocity;
        value           uniform (0 0 0);
    }

    "shaft.*"
    {
        type            movingWallVelocity;
        value           uniform (0 0 0);
    }

    #include "include/AMI"

    walls
    {
        type            fixedValue;
        value           uniform (1 0 0);
    }

    front
    {
        type            empty;
    }

    back
    {
        type            empty;
    }
}


// ************************************************************************* //
